
  EPA STORM WATER MANAGEMENT MODEL - VERSION 5.1 (Build 5.2.0.dev3)
  --------------------------------------------------------------

  
  ERROR 205: invalid keyword RULE_STEP at line 27 of [OPTION] section:
  RULE_STEP

  Analysis begun on:  Sun May  3 09:43:06 2020
  Analysis ended on:  Sun May  3 09:43:06 2020
  Total elapsed time: < 1 sec